/*--------------------------------*- C++ -*----------------------------------*\
  =========                 |
  \\      /  F ield         | OpenFOAM: The Open Source CFD Toolbox
   \\    /   O peration     | Website:  https://openfoam.org
    \\  /    A nd           | Version:  6
     \\/     M anipulation  |
\*---------------------------------------------------------------------------*/
FoamFile
{
    version	2.0;
    format	ascii;
    class	dictionary;
    object	waveProperties;
}
// * * * * * * * * * * * * * * * * * * * * * * * * * * * * * * * * * * * * * //

seaLevel            0;

relaxationNames     ( inlet outlet );

initializationName  inlet;

inletCoeffs
{
    waveType            stokesSecond;
    Tsoft               0.8;
    depth               70;
    period              8;
    direction           ( 1 0 0 );
    phi                 0;
    height              1.5;
    waveNumber          (0.0628986 0 0);
    omega               0.785398;
    debug               off;

    relaxationZone
    {
        relaxationScheme    Spatial;
        relaxationShape     Rectangular;
        beachType           Empty;
        relaxType           INLET;
        startX              ( -200 0 -70 );
        endX                ( 0 5 7 );
        orientation         ( 1 0 0 );
    }
}

outletCoeffs
{
    waveType            potentialCurrent;
    U                   ( 0 0 0 );
    Tsoft               0;

    relaxationZone
    {
        relaxationScheme    Spatial;
        relaxationShape     Rectangular;
        beachType           Empty;
        relaxType           OUTLET;
        startX              ( 200 0 -70 );
        endX                ( 400 5 7 );
        orientation         ( 1 0 0 );
    }
}



// ************************************************************************* //
