/*---------------------------------------------------------------------------*\
| =========                 |                                                 |
| \\      /  F ield         | OpenFOAM: The Open Source CFD Toolbox           |
|  \\    /   O peration     | Version:  1.3                                   |
|   \\  /    A nd           | Web:      http://www.openfoam.org               |
|    \\/     M anipulation  |                                                 |
\*---------------------------------------------------------------------------*/
FoamFile
{
    version     2.0;
    format      ascii;
    class       dictionary;
    location    "constant";
    object      waveDict;
}
// * * * * * * * * * * * * * * * * * * * * * * * * * * * * * * * * * * * * * //

waveType        irregular;

genAbs          1;

absDir          1.0;

nPaddles        1;

tSmooth         0;

wavePeriods
500
(
95.9692898273
88.809946714
82.6446280992
77.2797527048
72.5689404935
68.3994528044
64.6830530401
61.3496932515
58.3430571762
55.617352614
53.1349628055
50.8646998983
48.7804878049
46.8603561387
45.0856627592
43.4404865334
41.9111483655
40.4858299595
39.1542678152
37.9075056861
36.7376928729
35.6379187455
34.6020761246
33.6247478144
32.7011118378
31.8268618714
30.9981401116
30.2114803625
29.4637595757
28.7521564117
28.0741156654
27.4273176083
26.8096514745
26.2191924489
25.6541816316
25.1130085384
24.5941957698
24.0963855422
23.6183278224
23.1588698472
22.7169468423
22.2915737851
21.8818380744
21.4868929953
21.1059518784
20.7382828702
20.3832042397
20.0400801603
19.7083169097
19.3873594416
19.0766882869
18.775816748
18.4842883549
18.2016745541
17.9275726067
17.6616036736
17.4034110686
17.1526586621
16.9090294217
16.6722240747
16.4419598816
16.2179695102
16
15.7878118093
15.5811779371
15.3798831129
15.1837230489
14.9925037481
14.8060408647
14.6241591109
14.4466917076
14.2734798744
14.1043723554
13.9392249791
13.777900248
13.6202669572
13.4661998384
13.3155792277
13.1682907559
13.0242250586
12.8832775058
12.745347948
12.6103404792
12.4781632144
12.348728081
12.2219506233
12.0977498185
11.9760479042
11.8567702158
11.739845034
11.6252034411
11.5127791849
11.4025085519
11.2943302462
11.1881852763
11.0840168477
10.9817702614
10.8813928183
10.7828337287
10.6860440265
10.590976488
10.4975855553
10.4058272633
10.3156591706
10.2270402945
10.1399310485
10.0542931832
9.9700897308
9.8872849516
9.8058442832
9.7257342929
9.6469226317
9.5693779904
9.4930700589
9.4179694858
9.3440478415
9.2712775821
9.1996320147
9.1290852657
9.0596122486
8.9911886351
8.9237908263
8.8573959256
8.7919817127
8.727526619
8.6640097037
8.6014106313
8.5397096499
8.47888757
8.4189257451
8.3598060525
8.301510875
8.2440230833
8.1873260193
8.1314034802
8.0762397028
8.0218193486
7.96812749
7.9151495963
7.8628715207
7.8112794876
7.7603600807
7.7101002313
7.660487207
7.611508601
7.5631523219
7.5154065835
7.4682598954
7.4217010539
7.3757191326
7.3303034746
7.2854436835
7.2411296162
7.1973513747
7.1540992989
7.1113639596
7.0691361516
7.0274068869
6.9861673886
6.9454090846
6.9051236017
6.8653027599
6.8259385666
6.7870232116
6.748549062
6.7105086566
6.6728947017
6.6357000664
6.5989177775
6.5625410159
6.5265631119
6.4909775412
6.4557779212
6.4209580069
6.3865116873
6.3524329818
6.3187160369
6.2853551226
6.2523446292
6.2196790646
6.1873530504
6.1553613197
6.123698714
6.0923601803
6.0613407686
6.030635629
6.0002400096
5.9701492537
5.9403587977
5.9108641683
5.8816609811
5.8527449374
5.8241118229
5.7957575055
5.7676779329
5.739869131
5.7123272021
5.6850483229
5.6580287428
5.6312647821
5.6047528304
5.5784893451
5.5524708495
5.5266939317
5.5011552426
5.4758514949
5.4507794615
5.425935974
5.4013179216
5.3769222497
5.3527459587
5.3287861025
5.3050397878
5.2815041724
5.2581764644
5.2350539211
5.2121338476
5.1894135963
5.1668905653
5.1445621978
5.1224259809
5.1004794451
5.0787201625
5.0571457469
5.0357538524
5.0145421723
4.993508439
4.9726504227
4.9519659305
4.931452806
4.9111089284
4.8909322117
4.870920604
4.8510720869
4.8313846748
4.8118564142
4.7924853829
4.7732696897
4.7542074736
4.7352969031
4.7165361758
4.6979235178
4.679457183
4.6611354526
4.6429566348
4.6249190639
4.6070211002
4.589261129
4.5716375606
4.5541488296
4.5367933944
4.519569737
4.502476362
4.4855117969
4.4686745911
4.4519633158
4.4353765635
4.4189129474
4.4025711015
4.3863496798
4.370247356
4.3542628233
4.3383947939
4.3226419988
4.3070031872
4.2914771264
4.2760626016
4.260758415
4.2455633863
4.2304763516
4.2154961639
4.200621692
4.1858518208
4.1711854509
4.156621498
4.1421588932
4.1277965822
4.1135335253
4.0993686972
4.0853010867
4.0713296963
4.0574535422
4.0436716539
4.0299830741
4.0163868584
4.0028820751
3.989467805
3.9761431412
3.9629071887
3.9497590647
3.9366978978
3.9237228282
3.9108330074
3.898027598
3.8853057736
3.8726667183
3.8601096271
3.8476337053
3.8352381683
3.8229222418
3.8106851612
3.7985261718
3.7864445286
3.7744394957
3.7625103469
3.7506563649
3.7388768414
3.7271710772
3.7155383815
3.7039780724
3.6924894764
3.6810719281
3.6697247706
3.6584473549
3.64723904
3.6360991928
3.6250271877
3.6140224069
3.6030842401
3.5922120842
3.5814053435
3.5706634293
3.5599857601
3.5493717612
3.5388208649
3.5283325101
3.5179061423
3.5075412136
3.4972371826
3.4869935142
3.4768096794
3.4666851557
3.4566194262
3.4466119804
3.4366623136
3.4267699267
3.4169343265
3.4071550256
3.3974315418
3.3877633986
3.378150125
3.3685912551
3.3590863285
3.3496348898
3.3402364887
3.3308906802
3.3215970238
3.3123550845
3.3031644315
3.2940246393
3.2849352868
3.2758959575
3.2669062398
3.2579657262
3.2490740139
3.2402307044
3.2314354036
3.2226877216
3.2139872726
3.2053336752
3.196726552
3.1881655296
3.1796502385
3.1711803133
3.1627553925
3.1543751183
3.1460391367
3.1377470976
3.1294986543
3.121293464
3.1131311873
3.1050114885
3.0969340353
3.0888984988
3.0809045536
3.0729518776
3.065040152
3.0571690614
3.0493382936
3.0415475394
3.0337964929
3.0260848514
3.0184123151
3.0107785873
3.0031833744
2.9956263855
2.9881073328
2.9806259314
2.9731818993
2.965774957
2.9584048281
2.9510712389
2.9437739182
2.9365125976
2.9292870115
2.9220968967
2.9149419927
2.9078220413
2.9007367871
2.8936859772
2.8866693609
2.8796866901
2.872737719
2.8658222044
2.8589399051
2.8520905824
2.8452739999
2.8384899234
2.8317381209
2.8250183626
2.8183304211
2.8116740707
2.8050490884
2.7984552527
2.7918923446
2.7853601471
2.778858445
2.7723870252
2.7659456768
2.7595341906
2.7531523595
2.746799978
2.740476843
2.7341827528
2.7279175078
2.7216809101
2.7154727638
2.7092928746
2.7031410499
2.6970170991
2.6909208331
2.6848520647
2.6788106081
2.6727962795
2.6668088965
2.6608482784
2.6549142463
2.6490066225
2.6431252313
2.6372698982
2.6314404505
2.6256367169
2.6198585276
2.6141057144
2.6083781105
2.6026755505
2.5969978705
2.591344908
2.585716502
2.5801124929
2.5745327223
2.5689770333
2.5634452704
2.5579372794
2.5524529072
2.5469920024
2.5415544147
2.5361399949
2.5307485954
2.5253800697
2.5200342725
2.5147110597
2.5094102886
2.5041318175
2.498875506
2.4936412149
2.4884288061
2.4832381425
2.4780690886
2.4729215095
2.4677952717
2.4626902428
2.4576062915
2.4525432874
2.4475011014
2.4424796053
2.4374786721
2.4324981756
2.427537991
2.4225979941
2.417678062
2.4127780727
2.4078979051
2.4030374393
2.3981965562
2.3933751376
2.3885730665
2.3837902265
2.3790265024
2.3742817798
2.3695559452
2.3648488862
2.3601604909
2.3554906487
2.3508392496
2.3462061846
2.3415913455
2.3369946249
2.3324159164
2.3278551143
);
waveHeights
500
(
0
0
0
0
0
0
0
0
0
0
0
0
0
0
0
0
0
0
6.95592E-146
1.814568E-128
1.391844E-113
8.41968E-101
8.91496E-90
3.15932E-80
6.36804E-72
1.129244E-64
2.52694E-58
9.62998E-53
8.02802E-48
1.80615E-43
1.308908E-39
3.5488E-36
4.0877E-33
2.2293E-30
6.31546E-28
1.00637E-25
9.66032E-24
5.9269E-22
2.4466E-20
7.1052E-19
1.509296E-17
2.42626E-16
3.041E-15
3.0507E-14
2.50676E-13
1.72185E-12
1.00661E-11
5.0889E-11
2.25636E-10
8.8848E-10
3.14178E-09
1.007608E-08
2.95686E-08
0.00000008
2.01154E-07
4.72618E-07
1.043856E-06
2.17848E-06
4.31584E-06
8.15078E-06
1.473024E-05
2.55624E-05
4.27306E-05
0.000069003
0.0001079264
0.0001638908
0.000242158
0.000348844
0.00049085
0.000675746
0.000911608
0.001206818
0.001569834
0.00200894
0.00253204
0.00314632
0.00385816
0.00467288
0.00559458
0.00662604
0.0077687
0.00902256
0.01038624
0.01185702
0.01343094
0.01510284
0.01686656
0.01871508
0.0206406
0.0226348
0.0246886
0.0267934
0.0289394
0.031118
0.0333198
0.035536
0.0377584
0.0399792
0.0421912
0.044388
0.0465644
0.048716
0.0508398
0.052934
0.054999
0.0570362
0.0590498
0.0610456
0.063032
0.0650198
0.0670222
0.0690554
0.0711376
0.07329
0.0755354
0.0778984
0.0804048
0.0830806
0.0859516
0.0890408
0.0923686
0.0959494
0.0997906
0.1038898
0.1082322
0.1127886
0.1175126
0.1223396
0.1271864
0.131951
0.1365164
0.1407546
0.1445328
0.1477216
0.1502044
0.1518856
0.1526998
0.1527132
0.1520894
0.1509148
0.1492218
0.147055
0.144468
0.1415214
0.1382806
0.1348122
0.1311818
0.1274522
0.1236812
0.1199204
0.1162152
0.1126032
0.1091152
0.1057746
0.1025986
0.0995988
0.0967816
0.0941486
0.0916986
0.0894268
0.0873262
0.0853886
0.083604
0.0819618
0.080451
0.0790604
0.077779
0.076596
0.075501
0.074484
0.0735362
0.072649
0.0718146
0.0710258
0.0702766
0.0695612
0.0688748
0.0682128
0.0675718
0.0669482
0.0663396
0.0657436
0.0651584
0.0645822
0.0640138
0.0634524
0.0628968
0.0623466
0.0618014
0.0612606
0.060724
0.0601916
0.059663
0.059138
0.058617
0.0580996
0.057586
0.057076
0.0565698
0.0560676
0.055569
0.0550742
0.0545836
0.0540966
0.0536138
0.0531348
0.05266
0.052189
0.0517222
0.0512596
0.050801
0.0503464
0.049896
0.0494496
0.0490074
0.0485694
0.0481354
0.0477054
0.0472796
0.046858
0.0464404
0.0460268
0.0456172
0.0452118
0.0448104
0.0444128
0.0440194
0.0436298
0.0432442
0.0428624
0.0424846
0.0421106
0.0417404
0.041374
0.0410114
0.0406524
0.0402972
0.0399458
0.039598
0.0392538
0.038913
0.038576
0.0382424
0.0379124
0.0375858
0.0372626
0.0369428
0.0366264
0.0363132
0.0360034
0.0356968
0.0353936
0.0350934
0.0347966
0.0345026
0.034212
0.0339244
0.0336398
0.033358
0.0330794
0.0328038
0.032531
0.032261
0.031994
0.0317296
0.0314682
0.0312094
0.0309534
0.0307
0.0304494
0.0302014
0.0299558
0.029713
0.0294726
0.0292348
0.0289994
0.0287666
0.028536
0.028308
0.0280822
0.0278588
0.0276378
0.027419
0.0272026
0.0269882
0.0267762
0.0265664
0.0263586
0.026153
0.0259494
0.025748
0.0255488
0.0253514
0.025156
0.0249628
0.0247714
0.024582
0.0243944
0.0242088
0.024025
0.0238432
0.023663
0.0234848
0.0233084
0.0231336
0.0229606
0.0227894
0.0226198
0.022452
0.0222858
0.0221212
0.0219582
0.021797
0.0216372
0.021479
0.0213224
0.0211672
0.0210136
0.0208616
0.020711
0.0205618
0.020414
0.0202678
0.0201228
0.0199794
0.0198373
0.01969656
0.01955716
0.01941908
0.01928232
0.01914688
0.0190127
0.0188798
0.01874816
0.01861774
0.01848858
0.0183606
0.01823384
0.01810826
0.01798384
0.0178606
0.01773848
0.0176175
0.01749766
0.0173789
0.01726124
0.01714468
0.01702916
0.01691472
0.01680132
0.01668896
0.0165776
0.01646728
0.01635794
0.0162496
0.01614222
0.01603582
0.01593038
0.01582586
0.0157223
0.01561966
0.01551792
0.0154171
0.01531718
0.01521812
0.01511996
0.01502264
0.0149262
0.0148306
0.01473582
0.01464188
0.01454876
0.01445646
0.01436494
0.01427424
0.0141843
0.01409514
0.01400676
0.01391912
0.01383226
0.01374612
0.01366072
0.01357604
0.0134921
0.01340886
0.01332632
0.01324448
0.01316334
0.01308286
0.01300308
0.01292396
0.01284548
0.01276768
0.01269052
0.012614
0.01253812
0.01246286
0.01238822
0.0123142
0.01224078
0.01216798
0.01209576
0.01202414
0.0119531
0.01188262
0.01181274
0.0117434
0.01167464
0.01160644
0.01153876
0.01147164
0.01140506
0.01133902
0.0112735
0.0112085
0.01114402
0.01108004
0.01101658
0.01095362
0.01089114
0.01082916
0.01076768
0.01070666
0.01064614
0.01058608
0.01052648
0.01046736
0.0104087
0.01035048
0.0102927
0.01023538
0.0101785
0.01012206
0.01006606
0.01001048
0.00995532
0.00990058
0.00984626
0.00979234
0.00973884
0.00968574
0.00963304
0.00958074
0.00952884
0.00947732
0.00942618
0.00937542
0.00932506
0.00927506
0.00922542
0.00917616
0.00912726
0.00907872
0.00903054
0.00898272
0.00893524
0.00888812
0.00884134
0.00879488
0.00874878
0.00870302
0.00865758
0.00861246
0.00856768
0.00852322
0.00847908
0.00843526
0.00839174
0.00834854
0.00830566
0.00826306
0.00822078
0.0081788
0.0081371
0.00809572
0.00805462
0.0080138
0.00797328
0.00793304
0.00789308
0.0078534
0.007814
0.00777488
0.00773602
0.00769744
0.00765912
0.00762106
0.00758326
0.00754572
0.00750846
0.00747144
0.00743466
0.00739816
0.00736188
0.00732586
0.0072901
0.00725456
0.00721928
0.00718422
0.0071494
);
wavePhases
500
(
3.19998
1.97949
5.09999
2.68757
2.0085
4.67769
4.4141
3.76969
3.40389
4.34742
2.45146
1.6152
4.60851
4.34489
0.169205
5.92374
3.22177
1.57134
4.06078
3.67145
3.42299
0.23269
2.58963
0.265148
3.24568
2.22977
2.78721
3.06258
1.77127
4.33588
0.0152717
4.97124
0.0321808
5.11526
1.37563
2.04068
3.50977
5.78974
5.81036
0.63047
3.85397
1.97864
2.24567
2.1793
0.0403487
2.41487
1.81986
3.26212
3.98621
5.88063
0.650381
1.12601
6.11332
3.24001
1.39116
3.07582
5.46978
4.17837
6.13841
0.957862
2.23106
6.15368
5.92911
2.26324
4.98575
1.02155
4.30392
2.21234
0.528106
3.8311
2.8428
4.38208
5.80974
5.08847
0.27819
5.85008
1.22016
2.09805
2.82902
5.20636
1.6955
3.4794
0.04919
1.52564
0.436225
1.44035
4.60146
5.906
5.61872
4.45668
0.580681
1.5666
4.32717
0.226602
3.82984
3.02974
1.24816
1.85057
5.24208
1.77626
5.68167
1.8017
6.15834
5.20822
0.606981
0.153343
4.77512
1.82714
2.25139
1.32095
0.750313
3.94689
4.80035
0.799503
5.47252
5.23657
2.23985
3.7908
4.85939
1.57539
1.96429
5.44007
3.14199
0.0082787
5.66667
0.688636
3.03802
0.631644
2.53921
1.99691
2.40791
1.93769
3.79861
2.28306
0.862717
4.40559
2.4364
5.63783
6.23273
4.68779
0.675597
0.699853
2.3515
5.47594
1.49936
1.54084
4.42933
3.73921
5.33163
3.00554
5.3146
1.01274
2.16242
2.1734
1.02102
1.54591
2.86204
4.05904
2.17756
5.40124
6.05595
4.58546
1.05574
3.57137
0.585336
1.91846
1.69378
3.02174
1.27311
1.64332
1.42635
1.94871
2.34317
3.77784
1.14146
3.84253
5.31868
5.5708
1.29855
4.36713
2.29315
0.329969
5.37987
4.45557
2.50337
0.117704
6.00148
5.36541
4.17674
1.89585
4.48347
3.94951
0.198126
5.53921
1.2377
0.783462
1.17448
2.93148
3.8052
2.44759
4.57479
5.23155
4.3963
0.634777
2.72621
5.53776
4.4773
1.7617
4.82537
5.77586
6.12883
0.835336
6.10583
5.22551
5.2909
2.32601
5.34322
5.0092
1.40823
3.23678
0.621864
5.8917
0.903101
0.81999
5.14772
2.1408
1.60345
0.0390243
5.07227
5.40865
2.48662
3.36388
4.35702
0.599732
3.99866
0.800037
6.1375
2.19278
2.56174
4.67968
1.68545
2.40738
5.51502
1.50809
1.34971
4.52274
3.8341
0.409743
3.24875
5.24234
3.64652
3.87062
4.85085
4.54962
4.69061
3.71539
0.407235
0.010875
3.75442
5.47951
5.41953
6.24103
2.56021
3.49336
0.557581
0.275679
4.2934
0.411892
2.46846
0.571948
5.09158
4.15391
2.97933
4.32341
5.662
4.32904
2.56297
3.21292
4.73878
5.81172
2.17207
2.10212
3.39915
0.739736
0.368554
1.80657
4.45513
0.775789
1.81745
1.92636
6.2553
0.953793
1.88421
2.53232
4.44715
2.44179
2.808
2.45736
2.85368
5.27645
3.02931
1.66207
3.14718
6.00864
5.98548
2.52599
4.0545
2.26526
5.73891
2.51009
1.7938
1.62779
4.61221
5.19295
2.36753
4.98077
0.716339
0.539469
5.75656
2.53379
2.46583
5.72867
3.48758
4.35004
1.9778
1.65155
0.508645
4.7858
4.10891
3.36233
3.77907
0.855033
5.0244
0.64306
0.580488
4.7267
3.16905
4.63498
0.708779
2.62477
0.861891
2.50258
4.25256
5.4741
1.41234
0.3369
4.17168
2.12868
0.87637
3.64505
4.66247
3.3422
3.09054
1.86687
1.40905
5.06834
3.51841
1.9177
3.57095
1.34414
5.28003
1.06684
2.19917
4.02124
1.7099
2.77966
2.46476
4.87894
1.13146
3.17354
1.22053
1.99335
5.67611
5.47309
1.18427
0.805269
5.80999
5.35595
2.93395
0.403175
2.71782
1.31323
3.74537
5.80836
3.1801
5.15443
4.59351
0.415327
0.788941
1.88128
1.75946
6.06897
2.94811
3.95863
3.80702
4.65801
0.455108
6.27178
3.25377
1.58656
3.16213
4.4743
3.57991
2.55506
3.6642
4.76418
3.36033
3.19101
3.83694
0.0110913
3.59418
0.271574
1.32433
1.05637
6.07993
4.50442
6.2108
4.39026
4.91975
0.716556
6.27154
0.396031
0.502338
2.93647
4.35467
4.30936
1.31129
4.80977
4.29796
4.56506
0.113151
1.1769
2.75618
3.69306
3.73196
0.137196
2.17405
0.809102
3.32821
6.01099
0.820194
0.639205
6.28257
2.14452
1.69558
6.07931
0.365758
1.6232
4.18638
5.28551
2.33975
4.17474
5.68154
2.84209
0.828018
3.75302
0.868266
2.13931
2.27961
5.16622
0.421186
2.39276
0.059939
3.17736
6.08582
3.7919
3.31456
1.97669
4.601
0.359578
1.70449
5.4212
0.998784
1.70387
1.28253
2.69436
1.5
1.64829
4.31756
5.68638
0.65061
0.374125
3.57793
0.0489653
3.21621
4.40595
3.80199
4.08448
0.262074
6.08159
2.96752
0.68326
2.19117
3.02746
3.86062
1.9938
0.53617
0.891994
3.97049
5.13717
);
waveDirs
500
(
0
0
0
0
0
0
0
0
0
0
0
0
0
0
0
0
0
0
0
0
0
0
0
0
0
0
0
0
0
0
0
0
0
0
0
0
0
0
0
0
0
0
0
0
0
0
0
0
0
0
0
0
0
0
0
0
0
0
0
0
0
0
0
0
0
0
0
0
0
0
0
0
0
0
0
0
0
0
0
0
0
0
0
0
0
0
0
0
0
0
0
0
0
0
0
0
0
0
0
0
0
0
0
0
0
0
0
0
0
0
0
0
0
0
0
0
0
0
0
0
0
0
0
0
0
0
0
0
0
0
0
0
0
0
0
0
0
0
0
0
0
0
0
0
0
0
0
0
0
0
0
0
0
0
0
0
0
0
0
0
0
0
0
0
0
0
0
0
0
0
0
0
0
0
0
0
0
0
0
0
0
0
0
0
0
0
0
0
0
0
0
0
0
0
0
0
0
0
0
0
0
0
0
0
0
0
0
0
0
0
0
0
0
0
0
0
0
0
0
0
0
0
0
0
0
0
0
0
0
0
0
0
0
0
0
0
0
0
0
0
0
0
0
0
0
0
0
0
0
0
0
0
0
0
0
0
0
0
0
0
0
0
0
0
0
0
0
0
0
0
0
0
0
0
0
0
0
0
0
0
0
0
0
0
0
0
0
0
0
0
0
0
0
0
0
0
0
0
0
0
0
0
0
0
0
0
0
0
0
0
0
0
0
0
0
0
0
0
0
0
0
0
0
0
0
0
0
0
0
0
0
0
0
0
0
0
0
0
0
0
0
0
0
0
0
0
0
0
0
0
0
0
0
0
0
0
0
0
0
0
0
0
0
0
0
0
0
0
0
0
0
0
0
0
0
0
0
0
0
0
0
0
0
0
0
0
0
0
0
0
0
0
0
0
0
0
0
0
0
0
0
0
0
0
0
0
0
0
0
0
0
0
0
0
0
0
0
0
0
0
0
0
0
0
0
0
0
0
0
0
0
0
0
0
0
0
0
0
0
0
0
0
0
0
0
0
0
0
0
0
0
0
0
0
0
0
0
0
0
0
0
0
0
0
0
0
0
0
0
0
0
0
0
0
0
0
0
0
0
0
0
0
0
0
0
0
0
0
0
0
0
0
0
0
0
0
0
0
0
0
);

// ************************************************************************* //
