/*--------------------------------*- C++ -*----------------------------------*\
  =========                 |
  \\      /  F ield         | OpenFOAM: The Open Source CFD Toolbox
   \\    /   O peration     | Website:  https://openfoam.org
    \\  /    A nd           | Version:  6
     \\/     M anipulation  |
\*---------------------------------------------------------------------------*/
FoamFile
{
    version     2.0;
    format      ascii;
    class       dictionary;
    location    "system";
    object      blockMeshDict;
}

// * * * * * * * * * * * * * * * * * * * * * * * * * * * * * * * * * * * * * //

convertToMeters 1;

vertices
(
    (0 		-5 -70 )
    (100 	-5 -70)
    (0 		-5 -35 )
    (100 	-5 -35 )
    (0 		-5 -1.5 )
    (100 	-5 -1.5 )
    (0 		-5 1.5 )
    (100 	-5 1.5 )
    (0 		-5 3 )
    (100 	-5 3 )
    (0 		-5 7 )
    (100 	-5 7 )
    (0 		0 -70 )
    (100 	0 -70 )
    (0 		0 -35 )
    (100 	0 -35 )
    (0 		0 -1.5 )
    (100 	0 -1.5 )
    (0 		0 1.5 )
    (100 	0 1.5 )
    (0 		0 3 )
    (100 	0 3 )
    (0 		0 7 )
    (100 	0 7 )
    
    (200 -5 -70)
    (200 -5 -35 )
    (200 -5 -1.5 )
    (200 -5 1.5 )
    (200 -5 3 )
    (200 -5 7 )
    (200 0 -70 )
    (200 0 -35 )
    (200 0 -1.5 )
    (200 0 1.5 )
    (200 0 3 )
    (200 0 7 )
    
    (400 -5 -70)
    (400 -5 -35 )
    (400 -5 -1.5 )
    (400 -5 1.5 )
    (400 -5 3 )
    (400 -5 7 )
    (400 0 -70 )
    (400 0 -35 )
    (400 0 -1.5 )
    (400 0 1.5 )
    (400 0 3 )
    (400 0 7 )
);

blocks
(
    hex (0 1 13 12 2 3 15 14) (167 1 12) simpleGrading (1 1 0.33)
    hex (2 3 15 14 4 5 17 16) (167 1 56) simpleGrading (1 1 0.11)
    hex (4 5 17 16 6 7 19 18) (167 1 20) simpleGrading (1 1 1)
    hex (6 7 19 18 8 9 21 20) (167 1 10) simpleGrading (1 1 1)
    hex (8 9 21 20 10 11 23 22) (167 1 7) simpleGrading (1 1 9)
    
    hex (1 24 30 13 3 25 31 15) (167 1 12) simpleGrading (1 1 0.33)
    hex (3 25 31 15 5 26 32 17) (167 1 56) simpleGrading (1 1 0.11)
    hex (5 26 32 17 7 27 33 19) (167 1 20) simpleGrading (1 1 1)
    hex (7 27 33 19 9 28 34 21) (167 1 10) simpleGrading (1 1 1)
    hex (9 28 34 21 11 29 35 23) (167 1 7) simpleGrading (1 1 9)
    
    hex (24 36 42 30 25 37 43 31) (333 1 12) simpleGrading (1 1 0.33)
    hex (25 37 43 31 26 38 44 32) (333 1 56) simpleGrading (1 1 0.11)
    hex (26 38 44 32 27 39 45 33) (333 1 20) simpleGrading (1 1 1)
    hex (27 39 45 33 28 40 46 34) (333 1 10) simpleGrading (1 1 1)
    hex (28 40 46 34 29 41 47 35) (333 1 7) simpleGrading (1 1 9)
);

edges
(
);

defaultPatch
{
    name frontAndBack;
    type empty;
}

boundary
(
    inlet
    {
        type patch;
        faces
        (
            (0 2 14 12)
            (2 4 16 14)
            (4 6 18 16)
            (6 8 20 18)
            (8 10 22 20)
        );
    }
    outlet
    {
        type patch;
        faces
        (
            (36 42 43 37)
            (37 43 44 38)
            (39 38 44 45)
            (40 39 45 46)
            (41 40 46 47)
        );
    }
    bottom
    {
        type patch;
        faces
        (
            (0 12 13 1)
            (1 13 30 24)
            (24 30 42 36)
        );
    }
    atmosphere
    {
        type patch;
        faces
        (
            (10 11 23 22)
            (11 29 35 23)
            (29 41 47 35)
        );
    }
    ProbePatch
    {
        type empty;
        faces
        (
            //(10 11 23 22)
            //(11 29 35 23)
            //(29 41 47 35)
        );
    }
);

mergePatchPairs
(
);

// ************************************************************************* //
