/*--------------------------------*- C++ -*----------------------------------*\
  =========                 |
  \\      /  F ield         | OpenFOAM: The Open Source CFD Toolbox
   \\    /   O peration     | Website:  https://openfoam.org
    \\  /    A nd           | Version:  6
     \\/     M anipulation  |
\*---------------------------------------------------------------------------*/
FoamFile
{
    version     2.0;
    format      ascii;
    class       volVectorField;
    location    "0";
    object      U;
}
// * * * * * * * * * * * * * * * * * * * * * * * * * * * * * * * * * * * * * //

dimensions      [0 1 -1 0 0 0 0];

internalField   uniform (0 0 0);

boundaryField
{
    
    inlet
    {
        type            waveVelocity;
        origin          (0 0 0);
        direction       (1 0 0);
        speed           0;
        waves
        (
            Stokes2
            {
                length      100;
                amplitude   0.75;
                phase       0;
                angle       0;
            }
        );
        //ramp				constant 1;
        scale           table ((0 1) (1 0.1) (2000 0));
        crossScale      constant 1;
    }
    outlet
    {
        type            noSlip;
    }
    atmosphere
    {
        type            pressureInletOutletVelocity;
        value           uniform (0 0 0);
    }
    bottom
    {
        type            noSlip;
    }
    frontAndBack
    {
        type            empty;
    }
    PatchProbe
    {
        type            empty;
    }
}


// ************************************************************************* //
