/*--------------------------------*- C++ -*----------------------------------*\
  =========                 |
  \\      /  F ield         | OpenFOAM: The Open Source CFD Toolbox
   \\    /   O peration     | Website:  https://openfoam.org
    \\  /    A nd           | Version:  6
     \\/     M anipulation  |
\*---------------------------------------------------------------------------*/
FoamFile
{
    version	2.0;
    format	ascii;
    class	dictionary;
    object	waveProperties;
}
// * * * * * * * * * * * * * * * * * * * * * * * * * * * * * * * * * * * * * //

seaLevel            0;

relaxationNames     ( inlet outlet);

initializationName  inlet;

inletCoeffs
{
    waveType            irregular;
    spectrum            JONSWAP;
    N                   500;
    Tsoft               0.8;
    Hs                  1.5;
    Tp                  8;
    gamma               3.3;
    depth               70;
    direction           ( 1 0 0 );
    spectramValues  nonuniform List<scalar> 
501
(
0
0
0
0
0
0
0
0
0
0
0
0
0
0
0
0
0
0
0
1.44002e-288
9.79957e-254
5.76556e-224
2.10986e-198
2.36537e-176
2.97062e-157
1.2069e-140
3.79522e-126
1.90042e-113
2.76001e-102
1.91812e-92
9.70887e-84
5.09892e-76
3.7482e-69
4.973e-63
1.47908e-57
1.18704e-52
3.01411e-48
2.77713e-44
1.0452e-40
1.78045e-37
1.50072e-34
6.76469e-32
1.74523e-29
2.73483e-27
2.74253e-25
1.84276e-23
8.63943e-22
2.92927e-20
7.41446e-19
1.44107e-17
2.20529e-16
2.71721e-15
2.74993e-14
2.3271e-13
1.6732e-12
1.03693e-11
5.61091e-11
2.68188e-10
1.14425e-09
4.39933e-09
1.5373e-08
4.92043e-08
1.4527e-07
3.98152e-07
1.01894e-06
2.44776e-06
5.54635e-06
1.19062e-05
2.43117e-05
4.73947e-05
8.85078e-05
0.000158822
0.000274633
0.000458813
0.000742337
0.00116575
0.00178047
0.00264972
0.00384904
0.00546622
0.00760058
0.0103615
0.0138666
0.0182387
0.0236032
0.0300843
0.0378013
0.0468657
0.0573767
0.0694191
0.0830601
0.0983474
0.115308
0.133946
0.154247
0.176172
0.199665
0.224651
0.251045
0.278746
0.307653
0.337658
0.368665
0.400584
0.433348
0.466915
0.501281
0.536483
0.572616
0.609836
0.64837
0.688529
0.73071
0.775411
0.823227
0.874864
0.931133
0.992951
1.06133
1.13738
1.22223
1.31704
1.42292
1.54082
1.67141
1.81496
1.97113
2.13875
2.31571
2.49869
2.68318
2.86347
3.03292
3.18427
3.31029
3.40441
3.46144
3.47822
3.46266
3.42162
3.35673
3.2704
3.16566
3.04594
2.91487
2.77607
2.63296
2.48867
2.34587
2.20681
2.07323
1.94641
1.82725
1.71624
1.6136
1.51928
1.43308
1.35462
1.28347
1.2191
1.161
1.10861
1.0614
1.01885
0.980477
0.945822
0.914462
0.886008
0.860106
0.836437
0.814715
0.794683
0.776113
0.758806
0.742585
0.727298
0.712812
0.699014
0.685806
0.673105
0.660843
0.648962
0.637414
0.626159
0.615166
0.604408
0.593865
0.583519
0.573359
0.563372
0.553552
0.543893
0.534388
0.525035
0.515831
0.506773
0.497859
0.489088
0.480458
0.471968
0.463617
0.455404
0.447327
0.439386
0.43158
0.423906
0.416365
0.408954
0.401671
0.394517
0.387489
0.380586
0.373806
0.367148
0.36061
0.35419
0.347887
0.341699
0.335625
0.329663
0.32381
0.318066
0.312429
0.306897
0.301468
0.296141
0.290913
0.285784
0.280751
0.275813
0.270968
0.266215
0.261552
0.256977
0.252489
0.248086
0.243766
0.239529
0.235372
0.231294
0.227293
0.223369
0.21952
0.215743
0.212038
0.208404
0.204839
0.201342
0.197911
0.194545
0.191243
0.188003
0.184825
0.181708
0.178649
0.175648
0.172703
0.169814
0.16698
0.164199
0.16147
0.158793
0.156166
0.153588
0.151058
0.148576
0.14614
0.143749
0.141403
0.139101
0.136841
0.134623
0.132446
0.13031
0.128213
0.126154
0.124134
0.12215
0.120203
0.118292
0.116415
0.114573
0.112764
0.110988
0.109244
0.107532
0.105851
0.1042
0.102578
0.100986
0.0994229
0.0978874
0.0963793
0.0948982
0.0934434
0.0920144
0.0906108
0.089232
0.0878775
0.0865469
0.0852397
0.0839555
0.0826937
0.081454
0.080236
0.0790391
0.077863
0.0767073
0.0755716
0.0744555
0.0733586
0.0722805
0.071221
0.0701795
0.0691559
0.0681497
0.0671606
0.0661883
0.0652324
0.0642927
0.0633689
0.0624605
0.0615674
0.0606893
0.0598258
0.0589768
0.0581418
0.0573208
0.0565133
0.0557191
0.0549381
0.0541699
0.0534143
0.0526711
0.05194
0.0512209
0.0505134
0.0498175
0.0491328
0.0484592
0.0477964
0.0471443
0.0465027
0.0458713
0.0452501
0.0446387
0.0440371
0.043445
0.0428623
0.0422888
0.0417244
0.0411688
0.040622
0.0400837
0.0395538
0.0390322
0.0385187
0.0380132
0.0375155
0.0370256
0.0365431
0.0360681
0.0356004
0.0351398
0.0346863
0.0342397
0.0337999
0.0333668
0.0329402
0.0325201
0.0321063
0.0316987
0.0312973
0.0309019
0.0305124
0.0301286
0.0297506
0.0293783
0.0290114
0.02865
0.0282938
0.027943
0.0275973
0.0272566
0.0269209
0.0265902
0.0262642
0.025943
0.0256264
0.0253144
0.025007
0.0247039
0.0244052
0.0241108
0.0238206
0.0235345
0.0232525
0.0229745
0.0227005
0.0224303
0.022164
0.0219014
0.0216425
0.0213872
0.0211355
0.0208874
0.0206426
0.0204013
0.0201634
0.0199287
0.0196973
0.019469
0.0192439
0.0190219
0.018803
0.018587
0.018374
0.0181639
0.0179566
0.0177522
0.0175505
0.0173515
0.0171553
0.0169616
0.0167706
0.0165821
0.0163961
0.0162127
0.0160316
0.015853
0.0156767
0.0155028
0.0153311
0.0151618
0.0149946
0.0148297
0.0146669
0.0145062
0.0143476
0.0141911
0.0140366
0.0138841
0.0137336
0.013585
0.0134384
0.0132936
0.0131507
0.0130096
0.0128703
0.0127328
0.0125971
0.012463
0.0123307
0.0122
0.012071
0.0119436
0.0118178
0.0116936
0.011571
0.0114499
0.0113303
0.0112121
0.0110955
0.0109803
0.0108665
0.0107541
0.0106431
0.0105335
0.0104252
0.0103183
0.0102126
0.0101083
0.0100052
0.00990336
0.00980276
0.00970338
0.00960521
0.00950821
0.00941239
0.00931772
0.00922418
0.00913176
0.00904045
0.00895023
0.00886108
0.00877298
0.00868594
0.00859992
0.00851492
0.00843092
0.00834791
0.00826588
0.00818481
0.00810468
0.00802549
0.00794723
0.00786988
0.00779342
0.00771785
0.00764316
0.00756932
)
;

    fspectrum       nonuniform List<scalar> 
501
(
0.01
0.01084
0.01168
0.01252
0.01336
0.0142
0.01504
0.01588
0.01672
0.01756
0.0184
0.01924
0.02008
0.02092
0.02176
0.0226
0.02344
0.02428
0.02512
0.02596
0.0268
0.02764
0.02848
0.02932
0.03016
0.031
0.03184
0.03268
0.03352
0.03436
0.0352
0.03604
0.03688
0.03772
0.03856
0.0394
0.04024
0.04108
0.04192
0.04276
0.0436
0.04444
0.04528
0.04612
0.04696
0.0478
0.04864
0.04948
0.05032
0.05116
0.052
0.05284
0.05368
0.05452
0.05536
0.0562
0.05704
0.05788
0.05872
0.05956
0.0604
0.06124
0.06208
0.06292
0.06376
0.0646
0.06544
0.06628
0.06712
0.06796
0.0688
0.06964
0.07048
0.07132
0.07216
0.073
0.07384
0.07468
0.07552
0.07636
0.0772
0.07804
0.07888
0.07972
0.08056
0.0814
0.08224
0.08308
0.08392
0.08476
0.0856
0.08644
0.08728
0.08812
0.08896
0.0898
0.09064
0.09148
0.09232
0.09316
0.094
0.09484
0.09568
0.09652
0.09736
0.0982
0.09904
0.09988
0.10072
0.10156
0.1024
0.10324
0.10408
0.10492
0.10576
0.1066
0.10744
0.10828
0.10912
0.10996
0.1108
0.11164
0.11248
0.11332
0.11416
0.115
0.11584
0.11668
0.11752
0.11836
0.1192
0.12004
0.12088
0.12172
0.12256
0.1234
0.12424
0.12508
0.12592
0.12676
0.1276
0.12844
0.12928
0.13012
0.13096
0.1318
0.13264
0.13348
0.13432
0.13516
0.136
0.13684
0.13768
0.13852
0.13936
0.1402
0.14104
0.14188
0.14272
0.14356
0.1444
0.14524
0.14608
0.14692
0.14776
0.1486
0.14944
0.15028
0.15112
0.15196
0.1528
0.15364
0.15448
0.15532
0.15616
0.157
0.15784
0.15868
0.15952
0.16036
0.1612
0.16204
0.16288
0.16372
0.16456
0.1654
0.16624
0.16708
0.16792
0.16876
0.1696
0.17044
0.17128
0.17212
0.17296
0.1738
0.17464
0.17548
0.17632
0.17716
0.178
0.17884
0.17968
0.18052
0.18136
0.1822
0.18304
0.18388
0.18472
0.18556
0.1864
0.18724
0.18808
0.18892
0.18976
0.1906
0.19144
0.19228
0.19312
0.19396
0.1948
0.19564
0.19648
0.19732
0.19816
0.199
0.19984
0.20068
0.20152
0.20236
0.2032
0.20404
0.20488
0.20572
0.20656
0.2074
0.20824
0.20908
0.20992
0.21076
0.2116
0.21244
0.21328
0.21412
0.21496
0.2158
0.21664
0.21748
0.21832
0.21916
0.22
0.22084
0.22168
0.22252
0.22336
0.2242
0.22504
0.22588
0.22672
0.22756
0.2284
0.22924
0.23008
0.23092
0.23176
0.2326
0.23344
0.23428
0.23512
0.23596
0.2368
0.23764
0.23848
0.23932
0.24016
0.241
0.24184
0.24268
0.24352
0.24436
0.2452
0.24604
0.24688
0.24772
0.24856
0.2494
0.25024
0.25108
0.25192
0.25276
0.2536
0.25444
0.25528
0.25612
0.25696
0.2578
0.25864
0.25948
0.26032
0.26116
0.262
0.26284
0.26368
0.26452
0.26536
0.2662
0.26704
0.26788
0.26872
0.26956
0.2704
0.27124
0.27208
0.27292
0.27376
0.2746
0.27544
0.27628
0.27712
0.27796
0.2788
0.27964
0.28048
0.28132
0.28216
0.283
0.28384
0.28468
0.28552
0.28636
0.2872
0.28804
0.28888
0.28972
0.29056
0.2914
0.29224
0.29308
0.29392
0.29476
0.2956
0.29644
0.29728
0.29812
0.29896
0.2998
0.30064
0.30148
0.30232
0.30316
0.304
0.30484
0.30568
0.30652
0.30736
0.3082
0.30904
0.30988
0.31072
0.31156
0.3124
0.31324
0.31408
0.31492
0.31576
0.3166
0.31744
0.31828
0.31912
0.31996
0.3208
0.32164
0.32248
0.32332
0.32416
0.325
0.32584
0.32668
0.32752
0.32836
0.3292
0.33004
0.33088
0.33172
0.33256
0.3334
0.33424
0.33508
0.33592
0.33676
0.3376
0.33844
0.33928
0.34012
0.34096
0.3418
0.34264
0.34348
0.34432
0.34516
0.346
0.34684
0.34768
0.34852
0.34936
0.3502
0.35104
0.35188
0.35272
0.35356
0.3544
0.35524
0.35608
0.35692
0.35776
0.3586
0.35944
0.36028
0.36112
0.36196
0.3628
0.36364
0.36448
0.36532
0.36616
0.367
0.36784
0.36868
0.36952
0.37036
0.3712
0.37204
0.37288
0.37372
0.37456
0.3754
0.37624
0.37708
0.37792
0.37876
0.3796
0.38044
0.38128
0.38212
0.38296
0.3838
0.38464
0.38548
0.38632
0.38716
0.388
0.38884
0.38968
0.39052
0.39136
0.3922
0.39304
0.39388
0.39472
0.39556
0.3964
0.39724
0.39808
0.39892
0.39976
0.4006
0.40144
0.40228
0.40312
0.40396
0.4048
0.40564
0.40648
0.40732
0.40816
0.409
0.40984
0.41068
0.41152
0.41236
0.4132
0.41404
0.41488
0.41572
0.41656
0.4174
0.41824
0.41908
0.41992
0.42076
0.4216
0.42244
0.42328
0.42412
0.42496
0.4258
0.42664
0.42748
0.42832
0.42916
0.43
)
;

    amplitude           nonuniform List<scalar>
    500
    (
        0
        0
        0
        0
        0
        0
        0
        0
        0
        0
        0
        0
        0
        0
        0
        0
        0
        0
        3.47796e-146
        9.07284e-129
        6.95922e-114
        4.20984e-101
        4.45748e-90
        1.57966e-80
        3.18402e-72
        5.64622e-65
        1.26347e-58
        4.81499e-53
        4.01401e-48
        9.03075e-44
        6.54454e-40
        1.7744e-36
        2.04385e-33
        1.11465e-30
        3.15773e-28
        5.03185e-26
        4.83016e-24
        2.96345e-22
        1.2233e-20
        3.5526e-19
        7.54648e-18
        1.21313e-16
        1.5205e-15
        1.52535e-14
        1.25338e-13
        8.60925e-13
        5.03305e-12
        2.54445e-11
        1.12818e-10
        4.4424e-10
        1.57089e-09
        5.03804e-09
        1.47843e-08
        4.0012e-08
        1.00577e-07
        2.36309e-07
        5.21928e-07
        1.08924e-06
        2.15792e-06
        4.07539e-06
        7.36512e-06
        1.27812e-05
        2.13653e-05
        3.45015e-05
        5.39632e-05
        8.19454e-05
        0.000121079
        0.000174422
        0.000245425
        0.000337873
        0.000455804
        0.000603409
        0.000784917
        0.00100447
        0.00126602
        0.00157316
        0.00192908
        0.00233644
        0.00279729
        0.00331302
        0.00388435
        0.00451128
        0.00519312
        0.00592851
        0.00671547
        0.00755142
        0.00843328
        0.00935754
        0.0103203
        0.0113174
        0.0123443
        0.0133967
        0.0144697
        0.015559
        0.0166599
        0.017768
        0.0188792
        0.0199896
        0.0210956
        0.022194
        0.0232822
        0.024358
        0.0254199
        0.026467
        0.0274995
        0.0285181
        0.0295249
        0.0305228
        0.031516
        0.0325099
        0.0335111
        0.0345277
        0.0355688
        0.036645
        0.0377677
        0.0389492
        0.0402024
        0.0415403
        0.0429758
        0.0445204
        0.0461843
        0.0479747
        0.0498953
        0.0519449
        0.0541161
        0.0563943
        0.0587563
        0.0611698
        0.0635932
        0.0659755
        0.0682582
        0.0703773
        0.0722664
        0.0738608
        0.0751022
        0.0759428
        0.0763499
        0.0763566
        0.0760447
        0.0754574
        0.0746109
        0.0735275
        0.072234
        0.0707607
        0.0691403
        0.0674061
        0.0655909
        0.0637261
        0.0618406
        0.0599602
        0.0581076
        0.0563016
        0.0545576
        0.0528873
        0.0512993
        0.0497994
        0.0483908
        0.0470743
        0.0458493
        0.0447134
        0.0436631
        0.0426943
        0.041802
        0.0409809
        0.0402255
        0.0395302
        0.0388895
        0.038298
        0.0377505
        0.037242
        0.0367681
        0.0363245
        0.0359073
        0.0355129
        0.0351383
        0.0347806
        0.0344374
        0.0341064
        0.0337859
        0.0334741
        0.0331698
        0.0328718
        0.0325792
        0.0322911
        0.0320069
        0.0317262
        0.0314484
        0.0311733
        0.0309007
        0.0306303
        0.030362
        0.0300958
        0.0298315
        0.029569
        0.0293085
        0.0290498
        0.028793
        0.028538
        0.0282849
        0.0280338
        0.0277845
        0.0275371
        0.0272918
        0.0270483
        0.0268069
        0.0265674
        0.02633
        0.0260945
        0.0258611
        0.0256298
        0.0254005
        0.0251732
        0.024948
        0.0247248
        0.0245037
        0.0242847
        0.0240677
        0.0238527
        0.0236398
        0.023429
        0.0232202
        0.0230134
        0.0228086
        0.0226059
        0.0224052
        0.0222064
        0.0220097
        0.0218149
        0.0216221
        0.0214312
        0.0212423
        0.0210553
        0.0208702
        0.020687
        0.0205057
        0.0203262
        0.0201486
        0.0199729
        0.019799
        0.0196269
        0.0194565
        0.019288
        0.0191212
        0.0189562
        0.0187929
        0.0186313
        0.0184714
        0.0183132
        0.0181566
        0.0180017
        0.0178484
        0.0176968
        0.0175467
        0.0173983
        0.0172513
        0.017106
        0.0169622
        0.0168199
        0.016679
        0.0165397
        0.0164019
        0.0162655
        0.0161305
        0.015997
        0.0158648
        0.0157341
        0.0156047
        0.0154767
        0.01535
        0.0152247
        0.0151007
        0.0149779
        0.0148565
        0.0147363
        0.0146174
        0.0144997
        0.0143833
        0.014268
        0.014154
        0.0140411
        0.0139294
        0.0138189
        0.0137095
        0.0136013
        0.0134941
        0.0133881
        0.0132832
        0.0131793
        0.0130765
        0.0129747
        0.012874
        0.0127744
        0.0126757
        0.012578
        0.0124814
        0.0123857
        0.012291
        0.0121972
        0.0121044
        0.0120125
        0.0119216
        0.0118315
        0.0117424
        0.0116542
        0.0115668
        0.0114803
        0.0113947
        0.0113099
        0.011226
        0.0111429
        0.0110606
        0.0109791
        0.0108985
        0.0108186
        0.0107395
        0.0106612
        0.0105836
        0.0105068
        0.0104308
        0.0103555
        0.0102809
        0.010207
        0.0101339
        0.0100614
        0.0099897
        0.00991865
        0.00984828
        0.00977858
        0.00970954
        0.00964116
        0.00957344
        0.00950635
        0.0094399
        0.00937408
        0.00930887
        0.00924429
        0.0091803
        0.00911692
        0.00905413
        0.00899192
        0.0089303
        0.00886924
        0.00880875
        0.00874883
        0.00868945
        0.00863062
        0.00857234
        0.00851458
        0.00845736
        0.00840066
        0.00834448
        0.0082888
        0.00823364
        0.00817897
        0.0081248
        0.00807111
        0.00801791
        0.00796519
        0.00791293
        0.00786115
        0.00780983
        0.00775896
        0.00770855
        0.00765859
        0.00760906
        0.00755998
        0.00751132
        0.0074631
        0.0074153
        0.00736791
        0.00732094
        0.00727438
        0.00722823
        0.00718247
        0.00713712
        0.00709215
        0.00704757
        0.00700338
        0.00695956
        0.00691613
        0.00687306
        0.00683036
        0.00678802
        0.00674605
        0.00670443
        0.00666316
        0.00662224
        0.00658167
        0.00654143
        0.00650154
        0.00646198
        0.00642274
        0.00638384
        0.00634526
        0.006307
        0.00626906
        0.00623143
        0.00619411
        0.0061571
        0.00612039
        0.00608399
        0.00604788
        0.00601207
        0.00597655
        0.00594131
        0.00590637
        0.0058717
        0.00583732
        0.00580322
        0.00576938
        0.00573582
        0.00570253
        0.00566951
        0.00563675
        0.00560425
        0.00557201
        0.00554002
        0.00550829
        0.00547681
        0.00544557
        0.00541458
        0.00538384
        0.00535333
        0.00532307
        0.00529304
        0.00526324
        0.00523368
        0.00520435
        0.00517524
        0.00514635
        0.00511769
        0.00508925
        0.00506103
        0.00503303
        0.00500524
        0.00497766
        0.00495029
        0.00492313
        0.00489617
        0.00486942
        0.00484287
        0.00481652
        0.00479037
        0.00476442
        0.00473866
        0.00471309
        0.00468771
        0.00466253
        0.00463753
        0.00461271
        0.00458808
        0.00456363
        0.00453936
        0.00451527
        0.00449136
        0.00446762
        0.00444406
        0.00442067
        0.00439744
        0.00437439
        0.00435151
        0.00432879
        0.00430623
        0.00428384
        0.00426161
        0.00423954
        0.00421763
        0.00419587
        0.00417427
        0.00415283
        0.00413153
        0.00411039
        0.0040894
        0.00406855
        0.00404786
        0.00402731
        0.0040069
        0.00398664
        0.00396652
        0.00394654
        0.0039267
        0.003907
        0.00388744
        0.00386801
        0.00384872
        0.00382956
        0.00381053
        0.00379163
        0.00377286
        0.00375423
        0.00373572
        0.00371733
        0.00369908
        0.00368094
        0.00366293
        0.00364505
        0.00362728
        0.00360964
        0.00359211
        0.0035747
    );
    frequency           nonuniform List<scalar>
    500
    (
        0.01042
        0.01126
        0.0121
        0.01294
        0.01378
        0.01462
        0.01546
        0.0163
        0.01714
        0.01798
        0.01882
        0.01966
        0.0205
        0.02134
        0.02218
        0.02302
        0.02386
        0.0247
        0.02554
        0.02638
        0.02722
        0.02806
        0.0289
        0.02974
        0.03058
        0.03142
        0.03226
        0.0331
        0.03394
        0.03478
        0.03562
        0.03646
        0.0373
        0.03814
        0.03898
        0.03982
        0.04066
        0.0415
        0.04234
        0.04318
        0.04402
        0.04486
        0.0457
        0.04654
        0.04738
        0.04822
        0.04906
        0.0499
        0.05074
        0.05158
        0.05242
        0.05326
        0.0541
        0.05494
        0.05578
        0.05662
        0.05746
        0.0583
        0.05914
        0.05998
        0.06082
        0.06166
        0.0625
        0.06334
        0.06418
        0.06502
        0.06586
        0.0667
        0.06754
        0.06838
        0.06922
        0.07006
        0.0709
        0.07174
        0.07258
        0.07342
        0.07426
        0.0751
        0.07594
        0.07678
        0.07762
        0.07846
        0.0793
        0.08014
        0.08098
        0.08182
        0.08266
        0.0835
        0.08434
        0.08518
        0.08602
        0.08686
        0.0877
        0.08854
        0.08938
        0.09022
        0.09106
        0.0919
        0.09274
        0.09358
        0.09442
        0.09526
        0.0961
        0.09694
        0.09778
        0.09862
        0.09946
        0.1003
        0.10114
        0.10198
        0.10282
        0.10366
        0.1045
        0.10534
        0.10618
        0.10702
        0.10786
        0.1087
        0.10954
        0.11038
        0.11122
        0.11206
        0.1129
        0.11374
        0.11458
        0.11542
        0.11626
        0.1171
        0.11794
        0.11878
        0.11962
        0.12046
        0.1213
        0.12214
        0.12298
        0.12382
        0.12466
        0.1255
        0.12634
        0.12718
        0.12802
        0.12886
        0.1297
        0.13054
        0.13138
        0.13222
        0.13306
        0.1339
        0.13474
        0.13558
        0.13642
        0.13726
        0.1381
        0.13894
        0.13978
        0.14062
        0.14146
        0.1423
        0.14314
        0.14398
        0.14482
        0.14566
        0.1465
        0.14734
        0.14818
        0.14902
        0.14986
        0.1507
        0.15154
        0.15238
        0.15322
        0.15406
        0.1549
        0.15574
        0.15658
        0.15742
        0.15826
        0.1591
        0.15994
        0.16078
        0.16162
        0.16246
        0.1633
        0.16414
        0.16498
        0.16582
        0.16666
        0.1675
        0.16834
        0.16918
        0.17002
        0.17086
        0.1717
        0.17254
        0.17338
        0.17422
        0.17506
        0.1759
        0.17674
        0.17758
        0.17842
        0.17926
        0.1801
        0.18094
        0.18178
        0.18262
        0.18346
        0.1843
        0.18514
        0.18598
        0.18682
        0.18766
        0.1885
        0.18934
        0.19018
        0.19102
        0.19186
        0.1927
        0.19354
        0.19438
        0.19522
        0.19606
        0.1969
        0.19774
        0.19858
        0.19942
        0.20026
        0.2011
        0.20194
        0.20278
        0.20362
        0.20446
        0.2053
        0.20614
        0.20698
        0.20782
        0.20866
        0.2095
        0.21034
        0.21118
        0.21202
        0.21286
        0.2137
        0.21454
        0.21538
        0.21622
        0.21706
        0.2179
        0.21874
        0.21958
        0.22042
        0.22126
        0.2221
        0.22294
        0.22378
        0.22462
        0.22546
        0.2263
        0.22714
        0.22798
        0.22882
        0.22966
        0.2305
        0.23134
        0.23218
        0.23302
        0.23386
        0.2347
        0.23554
        0.23638
        0.23722
        0.23806
        0.2389
        0.23974
        0.24058
        0.24142
        0.24226
        0.2431
        0.24394
        0.24478
        0.24562
        0.24646
        0.2473
        0.24814
        0.24898
        0.24982
        0.25066
        0.2515
        0.25234
        0.25318
        0.25402
        0.25486
        0.2557
        0.25654
        0.25738
        0.25822
        0.25906
        0.2599
        0.26074
        0.26158
        0.26242
        0.26326
        0.2641
        0.26494
        0.26578
        0.26662
        0.26746
        0.2683
        0.26914
        0.26998
        0.27082
        0.27166
        0.2725
        0.27334
        0.27418
        0.27502
        0.27586
        0.2767
        0.27754
        0.27838
        0.27922
        0.28006
        0.2809
        0.28174
        0.28258
        0.28342
        0.28426
        0.2851
        0.28594
        0.28678
        0.28762
        0.28846
        0.2893
        0.29014
        0.29098
        0.29182
        0.29266
        0.2935
        0.29434
        0.29518
        0.29602
        0.29686
        0.2977
        0.29854
        0.29938
        0.30022
        0.30106
        0.3019
        0.30274
        0.30358
        0.30442
        0.30526
        0.3061
        0.30694
        0.30778
        0.30862
        0.30946
        0.3103
        0.31114
        0.31198
        0.31282
        0.31366
        0.3145
        0.31534
        0.31618
        0.31702
        0.31786
        0.3187
        0.31954
        0.32038
        0.32122
        0.32206
        0.3229
        0.32374
        0.32458
        0.32542
        0.32626
        0.3271
        0.32794
        0.32878
        0.32962
        0.33046
        0.3313
        0.33214
        0.33298
        0.33382
        0.33466
        0.3355
        0.33634
        0.33718
        0.33802
        0.33886
        0.3397
        0.34054
        0.34138
        0.34222
        0.34306
        0.3439
        0.34474
        0.34558
        0.34642
        0.34726
        0.3481
        0.34894
        0.34978
        0.35062
        0.35146
        0.3523
        0.35314
        0.35398
        0.35482
        0.35566
        0.3565
        0.35734
        0.35818
        0.35902
        0.35986
        0.3607
        0.36154
        0.36238
        0.36322
        0.36406
        0.3649
        0.36574
        0.36658
        0.36742
        0.36826
        0.3691
        0.36994
        0.37078
        0.37162
        0.37246
        0.3733
        0.37414
        0.37498
        0.37582
        0.37666
        0.3775
        0.37834
        0.37918
        0.38002
        0.38086
        0.3817
        0.38254
        0.38338
        0.38422
        0.38506
        0.3859
        0.38674
        0.38758
        0.38842
        0.38926
        0.3901
        0.39094
        0.39178
        0.39262
        0.39346
        0.3943
        0.39514
        0.39598
        0.39682
        0.39766
        0.3985
        0.39934
        0.40018
        0.40102
        0.40186
        0.4027
        0.40354
        0.40438
        0.40522
        0.40606
        0.4069
        0.40774
        0.40858
        0.40942
        0.41026
        0.4111
        0.41194
        0.41278
        0.41362
        0.41446
        0.4153
        0.41614
        0.41698
        0.41782
        0.41866
        0.4195
        0.42034
        0.42118
        0.42202
        0.42286
        0.4237
        0.42454
        0.42538
        0.42622
        0.42706
        0.4279
        0.42874
        0.42958
    );
    phaselag            nonuniform List<scalar>
    500
    (
        3.19998
        1.97949
        5.09999
        2.68757
        2.0085
        4.67769
        4.4141
        3.76969
        3.40389
        4.34742
        2.45146
        1.6152
        4.60851
        4.34489
        0.169205
        5.92374
        3.22177
        1.57134
        4.06078
        3.67145
        3.42299
        0.23269
        2.58963
        0.265148
        3.24568
        2.22977
        2.78721
        3.06258
        1.77127
        4.33588
        0.0152717
        4.97124
        0.0321808
        5.11526
        1.37563
        2.04068
        3.50977
        5.78974
        5.81036
        0.63047
        3.85397
        1.97864
        2.24567
        2.1793
        0.0403487
        2.41487
        1.81986
        3.26212
        3.98621
        5.88063
        0.650381
        1.12601
        6.11332
        3.24001
        1.39116
        3.07582
        5.46978
        4.17837
        6.13841
        0.957862
        2.23106
        6.15368
        5.92911
        2.26324
        4.98575
        1.02155
        4.30392
        2.21234
        0.528106
        3.8311
        2.8428
        4.38208
        5.80974
        5.08847
        0.27819
        5.85008
        1.22016
        2.09805
        2.82902
        5.20636
        1.6955
        3.4794
        0.04919
        1.52564
        0.436225
        1.44035
        4.60146
        5.906
        5.61872
        4.45668
        0.580681
        1.5666
        4.32717
        0.226602
        3.82984
        3.02974
        1.24816
        1.85057
        5.24208
        1.77626
        5.68167
        1.8017
        6.15834
        5.20822
        0.606981
        0.153343
        4.77512
        1.82714
        2.25139
        1.32095
        0.750313
        3.94689
        4.80035
        0.799503
        5.47252
        5.23657
        2.23985
        3.7908
        4.85939
        1.57539
        1.96429
        5.44007
        3.14199
        0.0082787
        5.66667
        0.688636
        3.03802
        0.631644
        2.53921
        1.99691
        2.40791
        1.93769
        3.79861
        2.28306
        0.862717
        4.40559
        2.4364
        5.63783
        6.23273
        4.68779
        0.675597
        0.699853
        2.3515
        5.47594
        1.49936
        1.54084
        4.42933
        3.73921
        5.33163
        3.00554
        5.3146
        1.01274
        2.16242
        2.1734
        1.02102
        1.54591
        2.86204
        4.05904
        2.17756
        5.40124
        6.05595
        4.58546
        1.05574
        3.57137
        0.585336
        1.91846
        1.69378
        3.02174
        1.27311
        1.64332
        1.42635
        1.94871
        2.34317
        3.77784
        1.14146
        3.84253
        5.31868
        5.5708
        1.29855
        4.36713
        2.29315
        0.329969
        5.37987
        4.45557
        2.50337
        0.117704
        6.00148
        5.36541
        4.17674
        1.89585
        4.48347
        3.94951
        0.198126
        5.53921
        1.2377